48
charge 0, multiplicity 1, undefined, autogenerated by Rowan at 2025-10-24 19:18:48
O     1.32060427  -0.40350535   1.63523079
C     1.56424765  -0.02460237   0.48632908
C     0.69688235   1.05100211  -0.10156697
N     2.59558032  -0.59639790  -0.26058733
C     2.71302704  -0.11893769  -1.65670220
C     1.78688101  -0.89184438  -2.59892899
C     1.04012732  -0.17580100  -3.55237734
C     0.19567088  -0.82917239  -4.45204496
C     0.07086615  -2.21269848  -4.41062951
C     0.78085760  -2.94097658  -3.46207619
C     1.62729685  -2.28817191  -2.56038838
C     4.19988070  -0.06634494  -2.10040545
C     4.44709997   0.59719042  -3.49034583
C     4.05667643   2.08171503  -3.48779630
C     5.91114311   0.49418453  -3.94195914
C     4.80249147  -1.46389826  -1.99465191
N     4.49939046  -2.08555939  -0.70981788
C     3.53608344  -1.68624165   0.13369107
S     3.53856607  -2.57893284   1.59435487
C     4.79367225  -3.60513719   1.01096440
C     5.38260893  -4.70536240   1.65377093
C     6.39451222  -5.39697321   0.98390484
C     6.80794911  -5.00586684  -0.28504300
C     6.22005801  -3.90585025  -0.92076659
C     5.19879619  -3.19620808  -0.25631177
H     0.22673820   0.70623417  -1.02453882
H    -0.11271203   1.27698941   0.60143795
H     1.26912503   1.97030395  -0.23937260
H     2.36833636   0.92146556  -1.65009395
H     1.08916859   0.91110222  -3.59962666
H    -0.37642236  -0.25409742  -5.17743516
H    -0.59509869  -2.71972676  -5.10543728
H     0.65931992  -4.02149780  -3.41828000
H     2.12768607  -2.90970524  -1.82745363
H     4.72454242   0.55204038  -1.35517868
H     3.84457232   0.08594147  -4.25016546
H     2.99358545   2.22919695  -3.28677559
H     4.26134167   2.53826634  -4.46258044
H     4.62365178   2.63649575  -2.73232329
H     6.19455127  -0.54362710  -4.14278793
H     6.07347373   1.05020325  -4.87202477
H     6.58969931   0.89936511  -3.18377113
H     4.45188395  -2.12374099  -2.79544711
H     5.89307002  -1.38901139  -2.07011083
H     5.06502787  -5.01921423   2.64622736
H     6.86498908  -6.25585278   1.46386433
H     7.59848432  -5.56507738  -0.78619599
H     6.56937913  -3.63662489  -1.91396481
